<?xml version='1.0' encoding='utf-8'?>
<routes xmlns:xsi="http://www.w3.org/2001/XMLSchema-instance" xsi:noNamespaceSchemaLocation="http://sumo.dlr.de/xsd/routes_file.xsd">
  <!--Generated by tools/person_chain_to_sumo.py from an explicit person chain JSON.
This file is intended to be loaded alongside PT vehicle route files and PT stop additional files.-->
  <person id="p0" depart="0">
    <walk from="A0B0" busStop="subway_stop_101S" />
    <ride lines="1" busStop="subway_stop_205N" />
    <walk to="C0D0" />
  </person>
</routes>