<?xml version="1.0" encoding="UTF-8"?>

<!-- generated on 2025-12-16T23:45:19.926018+08:00 by Eclipse SUMO netconvert 1.25.0
<netconvertConfiguration xmlns:xsi="http://www.w3.org/2001/XMLSchema-instance" xsi:noNamespaceSchemaLocation="http://sumo.dlr.de/xsd/netconvertConfiguration.xsd">

    <input>
        <sumo-net-file value="/tmp/toy_pt/toy_raw.net.xml"/>
    </input>

    <output>
        <output-file value="/tmp/toy_pt/toy.net.xml"/>
    </output>

    <processing>
        <geometry.min-radius.fix.railways value="false"/>
        <geometry.avoid-overlap value="false"/>
        <geometry.max-grade.fix value="false"/>
        <offset.disable-normalization value="true"/>
        <lefthand value="0"/>
    </processing>

    <junctions>
        <no-turnarounds value="true"/>
        <junctions.corner-detail value="5"/>
        <junctions.limit-turn-speed value="5.50"/>
        <rectangular-lane-cut value="0"/>
    </junctions>

    <pedestrian>
        <sidewalks.guess value="true"/>
        <crossings.guess value="true"/>
        <walkingareas value="true"/>
    </pedestrian>

</netconvertConfiguration>
-->

<net version="1.20" junctionCornerDetail="5" walkingareas="true" limitTurnSpeed="5.50" avoidOverlap="0" xmlns:xsi="http://www.w3.org/2001/XMLSchema-instance" xsi:noNamespaceSchemaLocation="http://sumo.dlr.de/xsd/net_file.xsd">

    <location netOffset="0.00,0.00" convBoundary="0.00,0.00,600.00,0.00" origBoundary="0.00,0.00,600.00,0.00" projParameter="!"/>

    <edge id=":A0_0" function="internal">
        <lane id=":A0_0_0" index="0" disallow="pedestrian" speed="3.65" length="4.67" shape="0.00,1.60 -1.20,0.80 -1.60,0.00 -1.20,-0.80 0.00,-1.60"/>
    </edge>
    <edge id=":A0_w0" function="walkingarea">
        <lane id=":A0_w0_0" index="0" allow="pedestrian" speed="2.78" length="8.40" width="2.00" shape="0.00,-3.20 0.00,-5.20 0.00,5.20 0.00,3.20"/>
    </edge>
    <edge id=":B0_0" function="internal">
        <lane id=":B0_0_0" index="0" disallow="pedestrian" speed="13.89" length="4.00" shape="122.00,1.60 118.00,1.60"/>
    </edge>
    <edge id=":B0_1" function="internal">
        <lane id=":B0_1_0" index="0" disallow="pedestrian" speed="13.89" length="4.00" shape="118.00,-1.60 122.00,-1.60"/>
    </edge>
    <edge id=":B0_c0" function="crossing" crossingEdges="B0C0 C0B0">
        <lane id=":B0_c0_0" index="0" allow="pedestrian" speed="2.78" length="6.40" width="4.00" shape="120.00,-3.20 120.00,3.20" outlineShape="122.00,-3.20 122.00,3.20 118.00,4.20 118.00,5.20 122.00,5.20 122.00,3.20 118.00,3.20 118.00,-3.20"/>
    </edge>
    <edge id=":B0_w0" function="walkingarea">
        <lane id=":B0_w0_0" index="0" allow="pedestrian" speed="2.78" length="2.82" width="4.00" shape="118.00,3.20 118.00,5.20 122.00,5.20 122.00,3.20 118.00,3.20"/>
    </edge>
    <edge id=":B0_w1" function="walkingarea">
        <lane id=":B0_w1_0" index="0" allow="pedestrian" speed="2.78" length="2.82" width="4.00" shape="118.00,-3.20 122.00,-3.20 122.00,-5.20 118.00,-5.20 118.00,-3.20"/>
    </edge>
    <edge id=":C0_0" function="internal">
        <lane id=":C0_0_0" index="0" disallow="pedestrian" speed="13.89" length="4.00" shape="242.00,1.60 238.00,1.60"/>
    </edge>
    <edge id=":C0_1" function="internal">
        <lane id=":C0_1_0" index="0" disallow="pedestrian" speed="13.89" length="4.00" shape="238.00,-1.60 242.00,-1.60"/>
    </edge>
    <edge id=":C0_c0" function="crossing" crossingEdges="C0D0 D0C0">
        <lane id=":C0_c0_0" index="0" allow="pedestrian" speed="2.78" length="6.40" width="4.00" shape="240.00,-3.20 240.00,3.20" outlineShape="242.00,-3.20 242.00,3.20 238.00,4.20 238.00,5.20 242.00,5.20 242.00,3.20 238.00,3.20 238.00,-3.20"/>
    </edge>
    <edge id=":C0_w0" function="walkingarea">
        <lane id=":C0_w0_0" index="0" allow="pedestrian" speed="2.78" length="2.82" width="4.00" shape="238.00,3.20 238.00,5.20 242.00,5.20 242.00,3.20 238.00,3.20"/>
    </edge>
    <edge id=":C0_w1" function="walkingarea">
        <lane id=":C0_w1_0" index="0" allow="pedestrian" speed="2.78" length="2.82" width="4.00" shape="238.00,-3.20 242.00,-3.20 242.00,-5.20 238.00,-5.20 238.00,-3.20"/>
    </edge>
    <edge id=":D0_0" function="internal">
        <lane id=":D0_0_0" index="0" disallow="pedestrian" speed="13.89" length="4.00" shape="362.00,1.60 358.00,1.60"/>
    </edge>
    <edge id=":D0_1" function="internal">
        <lane id=":D0_1_0" index="0" disallow="pedestrian" speed="13.89" length="4.00" shape="358.00,-1.60 362.00,-1.60"/>
    </edge>
    <edge id=":D0_c0" function="crossing" crossingEdges="D0E0 E0D0">
        <lane id=":D0_c0_0" index="0" allow="pedestrian" speed="2.78" length="6.40" width="4.00" shape="360.00,-3.20 360.00,3.20" outlineShape="362.00,-3.20 362.00,3.20 358.00,4.20 358.00,5.20 362.00,5.20 362.00,3.20 358.00,3.20 358.00,-3.20"/>
    </edge>
    <edge id=":D0_w0" function="walkingarea">
        <lane id=":D0_w0_0" index="0" allow="pedestrian" speed="2.78" length="2.82" width="4.00" shape="358.00,3.20 358.00,5.20 362.00,5.20 362.00,3.20 358.00,3.20"/>
    </edge>
    <edge id=":D0_w1" function="walkingarea">
        <lane id=":D0_w1_0" index="0" allow="pedestrian" speed="2.78" length="2.82" width="4.00" shape="358.00,-3.20 362.00,-3.20 362.00,-5.20 358.00,-5.20 358.00,-3.20"/>
    </edge>
    <edge id=":E0_0" function="internal">
        <lane id=":E0_0_0" index="0" disallow="pedestrian" speed="13.89" length="4.00" shape="482.00,1.60 478.00,1.60"/>
    </edge>
    <edge id=":E0_1" function="internal">
        <lane id=":E0_1_0" index="0" disallow="pedestrian" speed="13.89" length="4.00" shape="478.00,-1.60 482.00,-1.60"/>
    </edge>
    <edge id=":E0_c0" function="crossing" crossingEdges="E0F0 F0E0">
        <lane id=":E0_c0_0" index="0" allow="pedestrian" speed="2.78" length="6.40" width="4.00" shape="480.00,-3.20 480.00,3.20" outlineShape="482.00,-3.20 482.00,3.20 478.00,4.20 478.00,5.20 482.00,5.20 482.00,3.20 478.00,3.20 478.00,-3.20"/>
    </edge>
    <edge id=":E0_w0" function="walkingarea">
        <lane id=":E0_w0_0" index="0" allow="pedestrian" speed="2.78" length="2.82" width="4.00" shape="478.00,3.20 478.00,5.20 482.00,5.20 482.00,3.20 478.00,3.20"/>
    </edge>
    <edge id=":E0_w1" function="walkingarea">
        <lane id=":E0_w1_0" index="0" allow="pedestrian" speed="2.78" length="2.82" width="4.00" shape="478.00,-3.20 482.00,-3.20 482.00,-5.20 478.00,-5.20 478.00,-3.20"/>
    </edge>
    <edge id=":F0_0" function="internal">
        <lane id=":F0_0_0" index="0" disallow="pedestrian" speed="3.65" length="4.67" shape="600.00,-1.60 601.20,-0.80 601.60,0.00 601.20,0.80 600.00,1.60"/>
    </edge>
    <edge id=":F0_w0" function="walkingarea">
        <lane id=":F0_w0_0" index="0" allow="pedestrian" speed="2.78" length="8.40" width="2.00" shape="600.00,3.20 600.00,5.20 600.00,-5.20 600.00,-3.20"/>
    </edge>

    <edge id="A0B0" from="A0" to="B0" priority="-1">
        <lane id="A0B0_0" index="0" allow="pedestrian" speed="13.89" length="118.00" width="2.00" shape="0.00,-4.20 118.00,-4.20"/>
        <lane id="A0B0_1" index="1" disallow="pedestrian" speed="13.89" length="118.00" shape="0.00,-1.60 118.00,-1.60"/>
    </edge>
    <edge id="B0A0" from="B0" to="A0" priority="-1">
        <lane id="B0A0_0" index="0" allow="pedestrian" speed="13.89" length="118.00" width="2.00" shape="118.00,4.20 0.00,4.20"/>
        <lane id="B0A0_1" index="1" disallow="pedestrian" speed="13.89" length="118.00" shape="118.00,1.60 0.00,1.60"/>
    </edge>
    <edge id="B0C0" from="B0" to="C0" priority="-1">
        <lane id="B0C0_0" index="0" allow="pedestrian" speed="13.89" length="116.00" width="2.00" shape="122.00,-4.20 238.00,-4.20"/>
        <lane id="B0C0_1" index="1" disallow="pedestrian" speed="13.89" length="116.00" shape="122.00,-1.60 238.00,-1.60"/>
    </edge>
    <edge id="C0B0" from="C0" to="B0" priority="-1">
        <lane id="C0B0_0" index="0" allow="pedestrian" speed="13.89" length="116.00" width="2.00" shape="238.00,4.20 122.00,4.20"/>
        <lane id="C0B0_1" index="1" disallow="pedestrian" speed="13.89" length="116.00" shape="238.00,1.60 122.00,1.60"/>
    </edge>
    <edge id="C0D0" from="C0" to="D0" priority="-1">
        <lane id="C0D0_0" index="0" allow="pedestrian" speed="13.89" length="116.00" width="2.00" shape="242.00,-4.20 358.00,-4.20"/>
        <lane id="C0D0_1" index="1" disallow="pedestrian" speed="13.89" length="116.00" shape="242.00,-1.60 358.00,-1.60"/>
    </edge>
    <edge id="D0C0" from="D0" to="C0" priority="-1">
        <lane id="D0C0_0" index="0" allow="pedestrian" speed="13.89" length="116.00" width="2.00" shape="358.00,4.20 242.00,4.20"/>
        <lane id="D0C0_1" index="1" disallow="pedestrian" speed="13.89" length="116.00" shape="358.00,1.60 242.00,1.60"/>
    </edge>
    <edge id="D0E0" from="D0" to="E0" priority="-1">
        <lane id="D0E0_0" index="0" allow="pedestrian" speed="13.89" length="116.00" width="2.00" shape="362.00,-4.20 478.00,-4.20"/>
        <lane id="D0E0_1" index="1" disallow="pedestrian" speed="13.89" length="116.00" shape="362.00,-1.60 478.00,-1.60"/>
    </edge>
    <edge id="E0D0" from="E0" to="D0" priority="-1">
        <lane id="E0D0_0" index="0" allow="pedestrian" speed="13.89" length="116.00" width="2.00" shape="478.00,4.20 362.00,4.20"/>
        <lane id="E0D0_1" index="1" disallow="pedestrian" speed="13.89" length="116.00" shape="478.00,1.60 362.00,1.60"/>
    </edge>
    <edge id="E0F0" from="E0" to="F0" priority="-1">
        <lane id="E0F0_0" index="0" allow="pedestrian" speed="13.89" length="118.00" width="2.00" shape="482.00,-4.20 600.00,-4.20"/>
        <lane id="E0F0_1" index="1" disallow="pedestrian" speed="13.89" length="118.00" shape="482.00,-1.60 600.00,-1.60"/>
    </edge>
    <edge id="F0E0" from="F0" to="E0" priority="-1">
        <lane id="F0E0_0" index="0" allow="pedestrian" speed="13.89" length="118.00" width="2.00" shape="600.00,4.20 482.00,4.20"/>
        <lane id="F0E0_1" index="1" disallow="pedestrian" speed="13.89" length="118.00" shape="600.00,1.60 482.00,1.60"/>
    </edge>

    <junction id="A0" type="priority" x="0.00" y="0.00" incLanes="B0A0_0 B0A0_1" intLanes=":A0_0_0" shape="0.00,0.00 0.00,5.20 0.00,0.00">
        <request index="0" response="0" foes="0" cont="0"/>
    </junction>
    <junction id="B0" type="priority" x="120.00" y="0.00" incLanes="C0B0_0 C0B0_1 A0B0_0 A0B0_1 :B0_w1_0" intLanes=":B0_0_0 :B0_1_0 :B0_c0_0" shape="122.00,5.20 122.00,-5.20 118.00,-5.20 118.00,5.20">
        <request index="0" response="000" foes="100" cont="0"/>
        <request index="1" response="000" foes="100" cont="0"/>
        <request index="2" response="011" foes="011" cont="0"/>
    </junction>
    <junction id="C0" type="priority" x="240.00" y="0.00" incLanes="D0C0_0 D0C0_1 B0C0_0 B0C0_1 :C0_w1_0" intLanes=":C0_0_0 :C0_1_0 :C0_c0_0" shape="242.00,5.20 242.00,-5.20 238.00,-5.20 238.00,5.20">
        <request index="0" response="000" foes="100" cont="0"/>
        <request index="1" response="000" foes="100" cont="0"/>
        <request index="2" response="011" foes="011" cont="0"/>
    </junction>
    <junction id="D0" type="priority" x="360.00" y="0.00" incLanes="E0D0_0 E0D0_1 C0D0_0 C0D0_1 :D0_w1_0" intLanes=":D0_0_0 :D0_1_0 :D0_c0_0" shape="362.00,5.20 362.00,-5.20 358.00,-5.20 358.00,5.20">
        <request index="0" response="000" foes="100" cont="0"/>
        <request index="1" response="000" foes="100" cont="0"/>
        <request index="2" response="011" foes="011" cont="0"/>
    </junction>
    <junction id="E0" type="priority" x="480.00" y="0.00" incLanes="F0E0_0 F0E0_1 D0E0_0 D0E0_1 :E0_w1_0" intLanes=":E0_0_0 :E0_1_0 :E0_c0_0" shape="482.00,5.20 482.00,-5.20 478.00,-5.20 478.00,5.20">
        <request index="0" response="000" foes="100" cont="0"/>
        <request index="1" response="000" foes="100" cont="0"/>
        <request index="2" response="011" foes="011" cont="0"/>
    </junction>
    <junction id="F0" type="priority" x="600.00" y="0.00" incLanes="E0F0_0 E0F0_1" intLanes=":F0_0_0" shape="600.00,0.00 600.00,-5.20 600.00,0.00">
        <request index="0" response="0" foes="0" cont="0"/>
    </junction>

    <connection from="A0B0" to="B0C0" fromLane="1" toLane="1" via=":B0_1_0" dir="s" state="M"/>
    <connection from="B0A0" to="A0B0" fromLane="1" toLane="1" via=":A0_0_0" dir="t" state="M"/>
    <connection from="B0C0" to="C0D0" fromLane="1" toLane="1" via=":C0_1_0" dir="s" state="M"/>
    <connection from="C0B0" to="B0A0" fromLane="1" toLane="1" via=":B0_0_0" dir="s" state="M"/>
    <connection from="C0D0" to="D0E0" fromLane="1" toLane="1" via=":D0_1_0" dir="s" state="M"/>
    <connection from="D0C0" to="C0B0" fromLane="1" toLane="1" via=":C0_0_0" dir="s" state="M"/>
    <connection from="D0E0" to="E0F0" fromLane="1" toLane="1" via=":E0_1_0" dir="s" state="M"/>
    <connection from="E0D0" to="D0C0" fromLane="1" toLane="1" via=":D0_0_0" dir="s" state="M"/>
    <connection from="E0F0" to="F0E0" fromLane="1" toLane="1" via=":F0_0_0" dir="t" state="M"/>
    <connection from="F0E0" to="E0D0" fromLane="1" toLane="1" via=":E0_0_0" dir="s" state="M"/>

    <connection from=":A0_0" to="A0B0" fromLane="0" toLane="1" dir="t" state="M"/>
    <connection from=":B0_0" to="B0A0" fromLane="0" toLane="1" dir="s" state="M"/>
    <connection from=":B0_1" to="B0C0" fromLane="0" toLane="1" dir="s" state="M"/>
    <connection from=":C0_0" to="C0B0" fromLane="0" toLane="1" dir="s" state="M"/>
    <connection from=":C0_1" to="C0D0" fromLane="0" toLane="1" dir="s" state="M"/>
    <connection from=":D0_0" to="D0C0" fromLane="0" toLane="1" dir="s" state="M"/>
    <connection from=":D0_1" to="D0E0" fromLane="0" toLane="1" dir="s" state="M"/>
    <connection from=":E0_0" to="E0D0" fromLane="0" toLane="1" dir="s" state="M"/>
    <connection from=":E0_1" to="E0F0" fromLane="0" toLane="1" dir="s" state="M"/>
    <connection from=":F0_0" to="F0E0" fromLane="0" toLane="1" dir="t" state="M"/>

    <connection from=":A0_w0" to="A0B0" fromLane="0" toLane="0" dir="s" state="M"/>
    <connection from="B0A0" to=":A0_w0" fromLane="0" toLane="0" dir="s" state="M"/>
    <connection from=":B0_c0" to=":B0_w0" fromLane="0" toLane="0" dir="s" state="M"/>
    <connection from=":B0_w0" to="B0A0" fromLane="0" toLane="0" dir="s" state="M"/>
    <connection from="C0B0" to=":B0_w0" fromLane="0" toLane="0" dir="s" state="M"/>
    <connection from=":B0_w1" to=":B0_c0" fromLane="0" toLane="0" dir="s" state="m"/>
    <connection from=":B0_w1" to="B0C0" fromLane="0" toLane="0" dir="s" state="M"/>
    <connection from="A0B0" to=":B0_w1" fromLane="0" toLane="0" dir="s" state="M"/>
    <connection from=":C0_c0" to=":C0_w0" fromLane="0" toLane="0" dir="s" state="M"/>
    <connection from=":C0_w0" to="C0B0" fromLane="0" toLane="0" dir="s" state="M"/>
    <connection from="D0C0" to=":C0_w0" fromLane="0" toLane="0" dir="s" state="M"/>
    <connection from=":C0_w1" to=":C0_c0" fromLane="0" toLane="0" dir="s" state="m"/>
    <connection from=":C0_w1" to="C0D0" fromLane="0" toLane="0" dir="s" state="M"/>
    <connection from="B0C0" to=":C0_w1" fromLane="0" toLane="0" dir="s" state="M"/>
    <connection from=":D0_c0" to=":D0_w0" fromLane="0" toLane="0" dir="s" state="M"/>
    <connection from=":D0_w0" to="D0C0" fromLane="0" toLane="0" dir="s" state="M"/>
    <connection from="E0D0" to=":D0_w0" fromLane="0" toLane="0" dir="s" state="M"/>
    <connection from=":D0_w1" to=":D0_c0" fromLane="0" toLane="0" dir="s" state="m"/>
    <connection from=":D0_w1" to="D0E0" fromLane="0" toLane="0" dir="s" state="M"/>
    <connection from="C0D0" to=":D0_w1" fromLane="0" toLane="0" dir="s" state="M"/>
    <connection from=":E0_c0" to=":E0_w0" fromLane="0" toLane="0" dir="s" state="M"/>
    <connection from=":E0_w0" to="E0D0" fromLane="0" toLane="0" dir="s" state="M"/>
    <connection from="F0E0" to=":E0_w0" fromLane="0" toLane="0" dir="s" state="M"/>
    <connection from=":E0_w1" to=":E0_c0" fromLane="0" toLane="0" dir="s" state="m"/>
    <connection from=":E0_w1" to="E0F0" fromLane="0" toLane="0" dir="s" state="M"/>
    <connection from="D0E0" to=":E0_w1" fromLane="0" toLane="0" dir="s" state="M"/>
    <connection from=":F0_w0" to="F0E0" fromLane="0" toLane="0" dir="s" state="M"/>
    <connection from="E0F0" to=":F0_w0" fromLane="0" toLane="0" dir="s" state="M"/>
</net>
