<?xml version='1.0' encoding='utf-8'?>
<additional xmlns:xsi="http://www.w3.org/2001/XMLSchema-instance" xsi:noNamespaceSchemaLocation="http://sumo.dlr.de/xsd/additional_file.xsd">
  <busStop id="subway_stop_101S" name="Van Cortlandt Park-242 St" lane="421832732_1" startPos="0.00" endPos="10.00">
    <param key="geoPosition" value="-73.898583,40.889248" />
    <param key="edge" value="421832732" />
    <param key="distanceToLane" value="93.86" />
  </busStop>
  <busStop id="subway_stop_103S" name="238 St" lane="-804378577#2_0" startPos="0.00" endPos="10.00">
    <param key="geoPosition" value="-73.90087,40.884667" />
    <param key="edge" value="-804378577#2" />
    <param key="distanceToLane" value="72.86" />
  </busStop>
  <busStop id="subway_stop_104S" name="231 St" lane="846591493_0" startPos="654.79" endPos="674.79">
    <param key="geoPosition" value="-73.904834,40.878856" />
    <param key="edge" value="846591493" />
    <param key="distanceToLane" value="94.57" />
  </busStop>
  <busStop id="subway_stop_106S" name="Marble Hill-225 St" lane="132500933#0_0" startPos="54.82" endPos="64.82">
    <param key="geoPosition" value="-73.909831,40.874561" />
    <param key="edge" value="132500933#0" />
    <param key="distanceToLane" value="53.89" />
  </busStop>
  <busStop id="subway_stop_107S" name="215 St" lane="-520349854#7_0" startPos="0.00" endPos="10.00">
    <param key="geoPosition" value="-73.915279,40.869444" />
    <param key="edge" value="-520349854#7" />
    <param key="distanceToLane" value="66.98" />
  </busStop>
  <busStop id="subway_stop_108S" name="207 St" lane="-5671432#3_0" startPos="0.00" endPos="10.00">
    <param key="geoPosition" value="-73.918822,40.864621" />
    <param key="edge" value="-5671432#3" />
    <param key="distanceToLane" value="50.07" />
  </busStop>
  <busStop id="subway_stop_109S" name="Dyckman St" lane="164842044#0_0" startPos="0.00" endPos="8.52">
    <param key="geoPosition" value="-73.925536,40.860531" />
    <param key="edge" value="164842044#0" />
    <param key="distanceToLane" value="83.36" />
  </busStop>
  <busStop id="subway_stop_110S" name="191 St" lane="-68668523#19_0" startPos="0.00" endPos="10.00">
    <param key="geoPosition" value="-73.929412,40.855225" />
    <param key="edge" value="-68668523#19" />
    <param key="distanceToLane" value="40.27" />
  </busStop>
  <busStop id="subway_stop_111S" name="181 St" lane="-564385621_0" startPos="0.00" endPos="10.00">
    <param key="geoPosition" value="-73.933596,40.849505" />
    <param key="edge" value="-564385621" />
    <param key="distanceToLane" value="23.39" />
  </busStop>
  <busStop id="subway_stop_112S" name="168 St-Washington Hts" lane="541442319#0_0" startPos="48.41" endPos="68.41">
    <param key="geoPosition" value="-73.940133,40.840556" />
    <param key="edge" value="541442319#0" />
    <param key="distanceToLane" value="13.54" />
  </busStop>
  <busStop id="subway_stop_113S" name="157 St" lane="46577952_0" startPos="0.00" endPos="10.00">
    <param key="geoPosition" value="-73.94489,40.834041" />
    <param key="edge" value="46577952" />
    <param key="distanceToLane" value="52.06" />
  </busStop>
  <busStop id="subway_stop_114S" name="145 St" lane="223503127#7_0" startPos="0.00" endPos="10.00">
    <param key="geoPosition" value="-73.95036,40.826551" />
    <param key="edge" value="223503127#7" />
    <param key="distanceToLane" value="15.05" />
  </busStop>
  <busStop id="subway_stop_115S" name="137 St-City College" lane="5671331_0" startPos="0.00" endPos="10.00">
    <param key="geoPosition" value="-73.953676,40.822008" />
    <param key="edge" value="5671331" />
    <param key="distanceToLane" value="79.35" />
  </busStop>
  <busStop id="subway_stop_116S" name="125 St" lane="501844298#2_0" startPos="89.42" endPos="99.42">
    <param key="geoPosition" value="-73.958372,40.815581" />
    <param key="edge" value="501844298#2" />
    <param key="distanceToLane" value="93.98" />
  </busStop>
  <busStop id="subway_stop_117S" name="116 St-Columbia University" lane="849974884#0_0" startPos="143.76" endPos="153.76">
    <param key="geoPosition" value="-73.96411,40.807722" />
    <param key="edge" value="849974884#0" />
    <param key="distanceToLane" value="38.18" />
  </busStop>
  <busStop id="subway_stop_118S" name="Cathedral Pkwy (110 St)" lane="195743148#1_0" startPos="0.00" endPos="10.00">
    <param key="geoPosition" value="-73.966847,40.803967" />
    <param key="edge" value="195743148#1" />
    <param key="distanceToLane" value="51.43" />
  </busStop>
  <busStop id="subway_stop_119S" name="103 St" lane="5672743#0_0" startPos="101.84" endPos="111.84">
    <param key="geoPosition" value="-73.968379,40.799446" />
    <param key="edge" value="5672743#0" />
    <param key="distanceToLane" value="39.93" />
  </busStop>
  <busStop id="subway_stop_120S" name="96 St" lane="-420623124#1_1" startPos="0.00" endPos="10.00">
    <param key="geoPosition" value="-73.972323,40.793919" />
    <param key="edge" value="-420623124#1" />
    <param key="distanceToLane" value="94.09" />
  </busStop>
  <busStop id="subway_stop_121S" name="86 St" lane="-68668560#1_0" startPos="85.62" endPos="95.62">
    <param key="geoPosition" value="-73.976218,40.788644" />
    <param key="edge" value="-68668560#1" />
    <param key="distanceToLane" value="43.79" />
  </busStop>
  <busStop id="subway_stop_122S" name="79 St" lane="-68668533#2_0" startPos="73.12" endPos="83.12">
    <param key="geoPosition" value="-73.979917,40.783934" />
    <param key="edge" value="-68668533#2" />
    <param key="distanceToLane" value="10.97" />
  </busStop>
  <busStop id="subway_stop_123S" name="72 St" lane="705223736#0_0" startPos="0.00" endPos="13.68">
    <param key="geoPosition" value="-73.98197,40.778453" />
    <param key="edge" value="705223736#0" />
    <param key="distanceToLane" value="57.69" />
  </busStop>
  <busStop id="subway_stop_124S" name="66 St-Lincoln Center" lane="489022195#0_0" startPos="213.71" endPos="223.71">
    <param key="geoPosition" value="-73.982209,40.77344" />
    <param key="edge" value="489022195#0" />
    <param key="distanceToLane" value="38.07" />
  </busStop>
  <busStop id="subway_stop_125S" name="59 St-Columbus Circle" lane="167922075#0_0" startPos="0.00" endPos="10.00">
    <param key="geoPosition" value="-73.981929,40.768247" />
    <param key="edge" value="167922075#0" />
    <param key="distanceToLane" value="64.48" />
  </busStop>
  <busStop id="subway_stop_126S" name="50 St" lane="382740985#6_2" startPos="56.86" endPos="66.86">
    <param key="geoPosition" value="-73.983849,40.761728" />
    <param key="edge" value="382740985#6" />
    <param key="distanceToLane" value="87.95" />
  </busStop>
  <busStop id="subway_stop_127S" name="Times Sq-42 St" lane="167922070#0_0" startPos="58.52" endPos="68.52">
    <param key="geoPosition" value="-73.987495,40.75529" />
    <param key="edge" value="167922070#0" />
    <param key="distanceToLane" value="10.07" />
  </busStop>
  <busStop id="subway_stop_128S" name="34 St-Penn Station" lane="195743190_0" startPos="0.00" endPos="10.00">
    <param key="geoPosition" value="-73.991057,40.750373" />
    <param key="edge" value="195743190" />
    <param key="distanceToLane" value="85.49" />
  </busStop>
  <busStop id="subway_stop_129S" name="28 St" lane="420512232_0" startPos="0.00" endPos="10.00">
    <param key="geoPosition" value="-73.993365,40.747215" />
    <param key="edge" value="420512232" />
    <param key="distanceToLane" value="76.31" />
  </busStop>
  <busStop id="subway_stop_130S" name="23 St" lane="813970416#0_0" startPos="0.00" endPos="10.00">
    <param key="geoPosition" value="-73.995657,40.744081" />
    <param key="edge" value="813970416#0" />
    <param key="distanceToLane" value="82.44" />
  </busStop>
  <busStop id="subway_stop_131S" name="18 St" lane="481403099#0_0" startPos="249.89" endPos="259.89">
    <param key="geoPosition" value="-73.997871,40.74104" />
    <param key="edge" value="481403099#0" />
    <param key="distanceToLane" value="72.38" />
  </busStop>
  <busStop id="subway_stop_132S" name="14 St" lane="196117091#3_2" startPos="0.00" endPos="10.00">
    <param key="geoPosition" value="-74.000201,40.737826" />
    <param key="edge" value="196117091#3" />
    <param key="distanceToLane" value="2.34" />
  </busStop>
  <busStop id="subway_stop_133S" name="Christopher St-Sheridan Sq" lane="25199402#5_0" startPos="0.00" endPos="10.00">
    <param key="geoPosition" value="-74.002906,40.733422" />
    <param key="edge" value="25199402#5" />
    <param key="distanceToLane" value="92.31" />
  </busStop>
  <busStop id="subway_stop_134S" name="Houston St" lane="46139034#2_0" startPos="0.00" endPos="10.00">
    <param key="geoPosition" value="-74.005367,40.728251" />
    <param key="edge" value="46139034#2" />
    <param key="distanceToLane" value="41.43" />
  </busStop>
  <busStop id="subway_stop_135S" name="Canal St" lane="1007629837#0_0" startPos="95.66" endPos="115.66">
    <param key="geoPosition" value="-74.006277,40.722854" />
    <param key="edge" value="1007629837#0" />
    <param key="distanceToLane" value="56.40" />
  </busStop>
  <busStop id="subway_stop_136S" name="Franklin St" lane="5671354#3_0" startPos="0.00" endPos="10.00">
    <param key="geoPosition" value="-74.006886,40.719318" />
    <param key="edge" value="5671354#3" />
    <param key="distanceToLane" value="52.17" />
  </busStop>
  <busStop id="subway_stop_137S" name="Chambers St" lane="-524816751#2_0" startPos="0.00" endPos="10.00">
    <param key="geoPosition" value="-74.009266,40.715478" />
    <param key="edge" value="-524816751#2" />
    <param key="distanceToLane" value="6.12" />
  </busStop>
  <busStop id="subway_stop_138S" name="WTC Cortlandt" lane="655260632_0" startPos="72.41" endPos="82.41">
    <param key="geoPosition" value="-74.012188,40.711835" />
    <param key="edge" value="655260632" />
    <param key="distanceToLane" value="30.09" />
  </busStop>
  <busStop id="subway_stop_139S" name="Rector St" lane="46171889#3_0" startPos="46.87" endPos="66.87">
    <param key="geoPosition" value="-74.013783,40.707513" />
    <param key="edge" value="46171889#3" />
    <param key="distanceToLane" value="70.88" />
  </busStop>
  <busStop id="subway_stop_142S" name="South Ferry" lane="413202967_1" startPos="545.89" endPos="565.89">
    <param key="geoPosition" value="-74.013664,40.702068" />
    <param key="edge" value="413202967" />
    <param key="distanceToLane" value="97.55" />
  </busStop>
  <busStop id="subway_stop_142N" name="South Ferry" lane="413202967_1" startPos="545.89" endPos="565.89">
    <param key="geoPosition" value="-74.013664,40.702068" />
    <param key="edge" value="413202967" />
    <param key="distanceToLane" value="97.55" />
  </busStop>
  <busStop id="subway_stop_139N" name="Rector St" lane="46171889#3_0" startPos="46.87" endPos="66.87">
    <param key="geoPosition" value="-74.013783,40.707513" />
    <param key="edge" value="46171889#3" />
    <param key="distanceToLane" value="70.88" />
  </busStop>
  <busStop id="subway_stop_138N" name="WTC Cortlandt" lane="655260632_0" startPos="72.41" endPos="82.41">
    <param key="geoPosition" value="-74.012188,40.711835" />
    <param key="edge" value="655260632" />
    <param key="distanceToLane" value="30.09" />
  </busStop>
  <busStop id="subway_stop_137N" name="Chambers St" lane="-524816751#2_0" startPos="0.00" endPos="10.00">
    <param key="geoPosition" value="-74.009266,40.715478" />
    <param key="edge" value="-524816751#2" />
    <param key="distanceToLane" value="6.12" />
  </busStop>
  <busStop id="subway_stop_136N" name="Franklin St" lane="5671354#3_0" startPos="0.00" endPos="10.00">
    <param key="geoPosition" value="-74.006886,40.719318" />
    <param key="edge" value="5671354#3" />
    <param key="distanceToLane" value="52.17" />
  </busStop>
  <busStop id="subway_stop_135N" name="Canal St" lane="1007629837#0_0" startPos="95.66" endPos="115.66">
    <param key="geoPosition" value="-74.006277,40.722854" />
    <param key="edge" value="1007629837#0" />
    <param key="distanceToLane" value="56.40" />
  </busStop>
  <busStop id="subway_stop_134N" name="Houston St" lane="46139034#2_0" startPos="0.00" endPos="10.00">
    <param key="geoPosition" value="-74.005367,40.728251" />
    <param key="edge" value="46139034#2" />
    <param key="distanceToLane" value="41.43" />
  </busStop>
  <busStop id="subway_stop_133N" name="Christopher St-Sheridan Sq" lane="25199402#5_0" startPos="0.00" endPos="10.00">
    <param key="geoPosition" value="-74.002906,40.733422" />
    <param key="edge" value="25199402#5" />
    <param key="distanceToLane" value="92.31" />
  </busStop>
  <busStop id="subway_stop_132N" name="14 St" lane="196117091#3_2" startPos="0.00" endPos="10.00">
    <param key="geoPosition" value="-74.000201,40.737826" />
    <param key="edge" value="196117091#3" />
    <param key="distanceToLane" value="2.34" />
  </busStop>
  <busStop id="subway_stop_131N" name="18 St" lane="481403099#0_0" startPos="249.89" endPos="259.89">
    <param key="geoPosition" value="-73.997871,40.74104" />
    <param key="edge" value="481403099#0" />
    <param key="distanceToLane" value="72.38" />
  </busStop>
  <busStop id="subway_stop_130N" name="23 St" lane="813970416#0_0" startPos="0.00" endPos="10.00">
    <param key="geoPosition" value="-73.995657,40.744081" />
    <param key="edge" value="813970416#0" />
    <param key="distanceToLane" value="82.44" />
  </busStop>
  <busStop id="subway_stop_129N" name="28 St" lane="420512232_0" startPos="0.00" endPos="10.00">
    <param key="geoPosition" value="-73.993365,40.747215" />
    <param key="edge" value="420512232" />
    <param key="distanceToLane" value="76.31" />
  </busStop>
  <busStop id="subway_stop_128N" name="34 St-Penn Station" lane="195743190_0" startPos="0.00" endPos="10.00">
    <param key="geoPosition" value="-73.991057,40.750373" />
    <param key="edge" value="195743190" />
    <param key="distanceToLane" value="85.49" />
  </busStop>
  <busStop id="subway_stop_127N" name="Times Sq-42 St" lane="167922070#0_0" startPos="58.52" endPos="68.52">
    <param key="geoPosition" value="-73.987495,40.75529" />
    <param key="edge" value="167922070#0" />
    <param key="distanceToLane" value="10.07" />
  </busStop>
  <busStop id="subway_stop_126N" name="50 St" lane="382740985#6_2" startPos="56.86" endPos="66.86">
    <param key="geoPosition" value="-73.983849,40.761728" />
    <param key="edge" value="382740985#6" />
    <param key="distanceToLane" value="87.95" />
  </busStop>
  <busStop id="subway_stop_125N" name="59 St-Columbus Circle" lane="167922075#0_0" startPos="0.00" endPos="10.00">
    <param key="geoPosition" value="-73.981929,40.768247" />
    <param key="edge" value="167922075#0" />
    <param key="distanceToLane" value="64.48" />
  </busStop>
  <busStop id="subway_stop_124N" name="66 St-Lincoln Center" lane="489022195#0_0" startPos="213.71" endPos="223.71">
    <param key="geoPosition" value="-73.982209,40.77344" />
    <param key="edge" value="489022195#0" />
    <param key="distanceToLane" value="38.07" />
  </busStop>
  <busStop id="subway_stop_123N" name="72 St" lane="705223736#0_0" startPos="0.00" endPos="13.68">
    <param key="geoPosition" value="-73.98197,40.778453" />
    <param key="edge" value="705223736#0" />
    <param key="distanceToLane" value="57.69" />
  </busStop>
  <busStop id="subway_stop_122N" name="79 St" lane="-68668533#2_0" startPos="73.12" endPos="83.12">
    <param key="geoPosition" value="-73.979917,40.783934" />
    <param key="edge" value="-68668533#2" />
    <param key="distanceToLane" value="10.97" />
  </busStop>
  <busStop id="subway_stop_121N" name="86 St" lane="-68668560#1_0" startPos="85.62" endPos="95.62">
    <param key="geoPosition" value="-73.976218,40.788644" />
    <param key="edge" value="-68668560#1" />
    <param key="distanceToLane" value="43.79" />
  </busStop>
  <busStop id="subway_stop_120N" name="96 St" lane="-420623124#1_1" startPos="0.00" endPos="10.00">
    <param key="geoPosition" value="-73.972323,40.793919" />
    <param key="edge" value="-420623124#1" />
    <param key="distanceToLane" value="94.09" />
  </busStop>
  <busStop id="subway_stop_119N" name="103 St" lane="5672743#0_0" startPos="101.84" endPos="111.84">
    <param key="geoPosition" value="-73.968379,40.799446" />
    <param key="edge" value="5672743#0" />
    <param key="distanceToLane" value="39.93" />
  </busStop>
  <busStop id="subway_stop_118N" name="Cathedral Pkwy (110 St)" lane="195743148#1_0" startPos="0.00" endPos="10.00">
    <param key="geoPosition" value="-73.966847,40.803967" />
    <param key="edge" value="195743148#1" />
    <param key="distanceToLane" value="51.43" />
  </busStop>
  <busStop id="subway_stop_117N" name="116 St-Columbia University" lane="849974884#0_0" startPos="143.76" endPos="153.76">
    <param key="geoPosition" value="-73.96411,40.807722" />
    <param key="edge" value="849974884#0" />
    <param key="distanceToLane" value="38.18" />
  </busStop>
  <busStop id="subway_stop_116N" name="125 St" lane="501844298#2_0" startPos="89.42" endPos="99.42">
    <param key="geoPosition" value="-73.958372,40.815581" />
    <param key="edge" value="501844298#2" />
    <param key="distanceToLane" value="93.98" />
  </busStop>
  <busStop id="subway_stop_115N" name="137 St-City College" lane="5671331_0" startPos="0.00" endPos="10.00">
    <param key="geoPosition" value="-73.953676,40.822008" />
    <param key="edge" value="5671331" />
    <param key="distanceToLane" value="79.35" />
  </busStop>
  <busStop id="subway_stop_114N" name="145 St" lane="223503127#7_0" startPos="0.00" endPos="10.00">
    <param key="geoPosition" value="-73.95036,40.826551" />
    <param key="edge" value="223503127#7" />
    <param key="distanceToLane" value="15.05" />
  </busStop>
  <busStop id="subway_stop_113N" name="157 St" lane="46577952_0" startPos="0.00" endPos="10.00">
    <param key="geoPosition" value="-73.94489,40.834041" />
    <param key="edge" value="46577952" />
    <param key="distanceToLane" value="52.06" />
  </busStop>
  <busStop id="subway_stop_112N" name="168 St-Washington Hts" lane="541442319#0_0" startPos="48.41" endPos="68.41">
    <param key="geoPosition" value="-73.940133,40.840556" />
    <param key="edge" value="541442319#0" />
    <param key="distanceToLane" value="13.54" />
  </busStop>
  <busStop id="subway_stop_111N" name="181 St" lane="-564385621_0" startPos="0.00" endPos="10.00">
    <param key="geoPosition" value="-73.933596,40.849505" />
    <param key="edge" value="-564385621" />
    <param key="distanceToLane" value="23.39" />
  </busStop>
  <busStop id="subway_stop_110N" name="191 St" lane="-68668523#19_0" startPos="0.00" endPos="10.00">
    <param key="geoPosition" value="-73.929412,40.855225" />
    <param key="edge" value="-68668523#19" />
    <param key="distanceToLane" value="40.27" />
  </busStop>
  <busStop id="subway_stop_109N" name="Dyckman St" lane="164842044#0_0" startPos="0.00" endPos="8.52">
    <param key="geoPosition" value="-73.925536,40.860531" />
    <param key="edge" value="164842044#0" />
    <param key="distanceToLane" value="83.36" />
  </busStop>
  <busStop id="subway_stop_108N" name="207 St" lane="-5671432#3_0" startPos="0.00" endPos="10.00">
    <param key="geoPosition" value="-73.918822,40.864621" />
    <param key="edge" value="-5671432#3" />
    <param key="distanceToLane" value="50.07" />
  </busStop>
  <busStop id="subway_stop_107N" name="215 St" lane="-520349854#7_0" startPos="0.00" endPos="10.00">
    <param key="geoPosition" value="-73.915279,40.869444" />
    <param key="edge" value="-520349854#7" />
    <param key="distanceToLane" value="66.98" />
  </busStop>
  <busStop id="subway_stop_106N" name="Marble Hill-225 St" lane="132500933#0_0" startPos="54.82" endPos="64.82">
    <param key="geoPosition" value="-73.909831,40.874561" />
    <param key="edge" value="132500933#0" />
    <param key="distanceToLane" value="53.89" />
  </busStop>
  <busStop id="subway_stop_104N" name="231 St" lane="846591493_0" startPos="654.79" endPos="674.79">
    <param key="geoPosition" value="-73.904834,40.878856" />
    <param key="edge" value="846591493" />
    <param key="distanceToLane" value="94.57" />
  </busStop>
  <busStop id="subway_stop_103N" name="238 St" lane="-804378577#2_0" startPos="0.00" endPos="10.00">
    <param key="geoPosition" value="-73.90087,40.884667" />
    <param key="edge" value="-804378577#2" />
    <param key="distanceToLane" value="72.86" />
  </busStop>
  <busStop id="subway_stop_101N" name="Van Cortlandt Park-242 St" lane="421832732_1" startPos="0.00" endPos="10.00">
    <param key="geoPosition" value="-73.898583,40.889248" />
    <param key="edge" value="421832732" />
    <param key="distanceToLane" value="93.86" />
  </busStop>
  <busStop id="subway_stop_201S" name="Wakefield-241 St" lane="-46594610#1_0" startPos="0.00" endPos="10.00">
    <param key="geoPosition" value="-73.85062,40.903125" />
    <param key="edge" value="-46594610#1" />
    <param key="distanceToLane" value="90.57" />
  </busStop>
  <busStop id="subway_stop_204S" name="Nereid Av" lane="-5698932#1_0" startPos="0.00" endPos="18.30">
    <param key="geoPosition" value="-73.854376,40.898379" />
    <param key="edge" value="-5698932#1" />
    <param key="distanceToLane" value="81.50" />
  </busStop>
  <busStop id="subway_stop_205S" name="233 St" lane="-743640947#2_0" startPos="128.27" endPos="138.27">
    <param key="geoPosition" value="-73.857473,40.893193" />
    <param key="edge" value="-743640947#2" />
    <param key="distanceToLane" value="23.27" />
  </busStop>
  <busStop id="subway_stop_206S" name="225 St" lane="5697769#3_0" startPos="0.00" endPos="10.00">
    <param key="geoPosition" value="-73.860341,40.888022" />
    <param key="edge" value="5697769#3" />
    <param key="distanceToLane" value="28.45" />
  </busStop>
  <busStop id="subway_stop_207S" name="219 St" lane="-277135210#2_0" startPos="0.00" endPos="10.00">
    <param key="geoPosition" value="-73.862633,40.883895" />
    <param key="edge" value="-277135210#2" />
    <param key="distanceToLane" value="40.31" />
  </busStop>
  <busStop id="subway_stop_208S" name="Gun Hill Rd" lane="5697438#0_0" startPos="0.00" endPos="10.00">
    <param key="geoPosition" value="-73.866256,40.87785" />
    <param key="edge" value="5697438#0" />
    <param key="distanceToLane" value="64.13" />
  </busStop>
  <busStop id="subway_stop_209S" name="Burke Av" lane="574812143#1_0" startPos="0.00" endPos="10.00">
    <param key="geoPosition" value="-73.867164,40.871356" />
    <param key="edge" value="574812143#1" />
    <param key="distanceToLane" value="94.16" />
  </busStop>
  <busStop id="subway_stop_210S" name="Allerton Av" lane="-224082355#7_0" startPos="0.00" endPos="10.00">
    <param key="geoPosition" value="-73.867352,40.865462" />
    <param key="edge" value="-224082355#7" />
    <param key="distanceToLane" value="2.45" />
  </busStop>
  <busStop id="subway_stop_211S" name="Pelham Pkwy" lane="-995004861_0" startPos="0.00" endPos="10.00">
    <param key="geoPosition" value="-73.867615,40.857192" />
    <param key="edge" value="-995004861" />
    <param key="distanceToLane" value="61.57" />
  </busStop>
  <busStop id="subway_stop_212S" name="Bronx Park East" lane="361088899#0_0" startPos="147.25" endPos="157.25">
    <param key="geoPosition" value="-73.868457,40.848828" />
    <param key="edge" value="361088899#0" />
    <param key="distanceToLane" value="97.03" />
  </busStop>
  <busStop id="subway_stop_213S" name="E 180 St" lane="-219926582#2_0" startPos="83.69" endPos="103.69">
    <param key="geoPosition" value="-73.873488,40.841894" />
    <param key="edge" value="-219926582#2" />
    <param key="distanceToLane" value="76.03" />
  </busStop>
  <busStop id="subway_stop_214S" name="West Farms Sq-E Tremont Av" lane="-38796458#3_0" startPos="0.00" endPos="10.00">
    <param key="geoPosition" value="-73.880049,40.840295" />
    <param key="edge" value="-38796458#3" />
    <param key="distanceToLane" value="21.81" />
  </busStop>
  <busStop id="subway_stop_215S" name="174 St" lane="-359253980#22_0" startPos="0.00" endPos="10.00">
    <param key="geoPosition" value="-73.887734,40.837288" />
    <param key="edge" value="-359253980#22" />
    <param key="distanceToLane" value="9.88" />
  </busStop>
  <busStop id="subway_stop_216S" name="Freeman St" lane="273541615#3_0" startPos="154.63" endPos="174.03">
    <param key="geoPosition" value="-73.891865,40.829993" />
    <param key="edge" value="273541615#3" />
    <param key="distanceToLane" value="86.23" />
  </busStop>
  <busStop id="subway_stop_217S" name="Simpson St" lane="274458288#4_0" startPos="252.48" endPos="267.59">
    <param key="geoPosition" value="-73.893064,40.824073" />
    <param key="edge" value="274458288#4" />
    <param key="distanceToLane" value="70.24" />
  </busStop>
  <busStop id="subway_stop_218S" name="Intervale Av" lane="-5697605#0_0" startPos="0.00" endPos="10.00">
    <param key="geoPosition" value="-73.896736,40.822181" />
    <param key="edge" value="-5697605#0" />
    <param key="distanceToLane" value="13.87" />
  </busStop>
  <busStop id="subway_stop_219S" name="Prospect Av" lane="5699529#0_0" startPos="0.00" endPos="10.52">
    <param key="geoPosition" value="-73.90177,40.819585" />
    <param key="edge" value="5699529#0" />
    <param key="distanceToLane" value="11.61" />
  </busStop>
  <busStop id="subway_stop_220S" name="Jackson Av" lane="-5698166#5_0" startPos="0.00" endPos="10.00">
    <param key="geoPosition" value="-73.907807,40.81649" />
    <param key="edge" value="-5698166#5" />
    <param key="distanceToLane" value="98.69" />
  </busStop>
  <busStop id="subway_stop_221S" name="3 Av-149 St" lane="440887377#0_0" startPos="58.32" endPos="68.32">
    <param key="geoPosition" value="-73.917757,40.816109" />
    <param key="edge" value="440887377#0" />
    <param key="distanceToLane" value="24.51" />
  </busStop>
  <busStop id="subway_stop_222S" name="149 St-Grand Concourse" lane="223482497#0_0" startPos="0.00" endPos="10.00">
    <param key="geoPosition" value="-73.926718,40.81841" />
    <param key="edge" value="223482497#0" />
    <param key="distanceToLane" value="52.58" />
  </busStop>
  <busStop id="subway_stop_224S" name="135 St" lane="511930974_0" startPos="0.00" endPos="10.00">
    <param key="geoPosition" value="-73.94077,40.814229" />
    <param key="edge" value="511930974" />
    <param key="distanceToLane" value="70.60" />
  </busStop>
  <busStop id="subway_stop_225S" name="125 St" lane="497264364_0" startPos="57.90" endPos="67.90">
    <param key="geoPosition" value="-73.945495,40.807754" />
    <param key="edge" value="497264364" />
    <param key="distanceToLane" value="87.74" />
  </busStop>
  <busStop id="subway_stop_226S" name="116 St" lane="305323031#2_0" startPos="0.00" endPos="10.00">
    <param key="geoPosition" value="-73.949625,40.802098" />
    <param key="edge" value="305323031#2" />
    <param key="distanceToLane" value="94.97" />
  </busStop>
  <busStop id="subway_stop_227S" name="Central Park North (110 St)" lane="5671444#8_0" startPos="0.00" endPos="10.00">
    <param key="geoPosition" value="-73.951822,40.799075" />
    <param key="edge" value="5671444#8" />
    <param key="distanceToLane" value="52.02" />
  </busStop>
  <busStop id="subway_stop_228S" name="Park Place" lane="-587038050#3_0" startPos="91.95" endPos="111.95">
    <param key="geoPosition" value="-74.008811,40.713051" />
    <param key="edge" value="-587038050#3" />
    <param key="distanceToLane" value="1.99" />
  </busStop>
  <busStop id="subway_stop_229S" name="Fulton St" lane="46160225#0_0" startPos="73.43" endPos="83.43">
    <param key="geoPosition" value="-74.006571,40.709416" />
    <param key="edge" value="46160225#0" />
    <param key="distanceToLane" value="19.42" />
  </busStop>
  <busStop id="subway_stop_230S" name="Wall St" lane="388281631#2_0" startPos="49.97" endPos="59.97">
    <param key="geoPosition" value="-74.0091,40.706821" />
    <param key="edge" value="388281631#2" />
    <param key="distanceToLane" value="59.68" />
  </busStop>
  <busStop id="subway_stop_231S" name="Clark St" lane="223185218#2_0" startPos="120.78" endPos="131.00">
    <param key="geoPosition" value="-73.993086,40.697466" />
    <param key="edge" value="223185218#2" />
    <param key="distanceToLane" value="76.68" />
  </busStop>
  <busStop id="subway_stop_232S" name="Borough Hall" lane="894417610#0_0" startPos="0.00" endPos="10.00">
    <param key="geoPosition" value="-73.989998,40.693219" />
    <param key="edge" value="894417610#0" />
    <param key="distanceToLane" value="82.76" />
  </busStop>
  <busStop id="subway_stop_233S" name="Hoyt St" lane="347297472_0" startPos="0.00" endPos="10.00">
    <param key="geoPosition" value="-73.985065,40.690545" />
    <param key="edge" value="347297472" />
    <param key="distanceToLane" value="95.77" />
  </busStop>
  <busStop id="subway_stop_234S" name="Nevins St" lane="-728850961#2_0" startPos="103.83" endPos="113.83">
    <param key="geoPosition" value="-73.980492,40.688246" />
    <param key="edge" value="-728850961#2" />
    <param key="distanceToLane" value="84.01" />
  </busStop>
  <busStop id="subway_stop_235S" name="Atlantic Av-Barclays Ctr" lane="-420880632_0" startPos="61.79" endPos="71.79">
    <param key="geoPosition" value="-73.977666,40.684359" />
    <param key="edge" value="-420880632" />
    <param key="distanceToLane" value="38.39" />
  </busStop>
  <busStop id="subway_stop_236S" name="Bergen St" lane="625647904_0" startPos="0.00" endPos="10.00">
    <param key="geoPosition" value="-73.975098,40.680829" />
    <param key="edge" value="625647904" />
    <param key="distanceToLane" value="71.65" />
  </busStop>
  <busStop id="subway_stop_237S" name="Grand Army Plaza" lane="452286948#0_0" startPos="0.00" endPos="10.00">