<?xml version='1.0' encoding='utf-8'?>
<routes xmlns:xsi="http://www.w3.org/2001/XMLSchema-instance" xsi:noNamespaceSchemaLocation="http://sumo.dlr.de/xsd/routes_file.xsd">
  <!--Generated by tools/person_chain_to_sumo.py from an explicit person chain JSON.
This file is intended to be loaded alongside PT vehicle route files and PT stop additional files.-->
  <person id="p0" depart="0">
    <walk from="C0D0" busStop="bus_stop_303345" />
    <ride lines="B42" busStop="bus_stop_306405" />
    <walk to="E0F0" />
  </person>
</routes>